Version 4
SHEET 1 880 680
WIRE 144 -144 -80 -144
WIRE -80 -128 -80 -144
WIRE 144 -96 144 -144
WIRE 144 -96 128 -96
WIRE 176 -96 144 -96
WIRE 384 -96 176 -96
WIRE 176 -64 176 -96
WIRE 128 -48 128 -96
WIRE 384 -32 384 -96
WIRE -80 0 -80 -48
WIRE -80 0 -128 0
WIRE -32 0 -80 0
WIRE 144 32 128 32
WIRE 160 32 144 32
WIRE 272 32 240 32
WIRE 384 80 384 48
WIRE 384 80 192 80
WIRE 448 80 384 80
WIRE -128 112 -128 80
WIRE -128 112 -224 112
WIRE 192 112 192 80
WIRE -32 128 -32 80
WIRE 32 128 -32 128
WIRE 144 128 144 32
WIRE 160 128 144 128
WIRE -128 144 -128 112
WIRE -32 144 -32 128
WIRE 272 144 272 32
WIRE 272 144 224 144
WIRE 288 144 272 144
WIRE 336 144 288 144
WIRE 464 144 416 144
WIRE 576 144 544 144
WIRE 32 160 32 128
WIRE 160 160 112 160
WIRE 192 192 192 176
WIRE 208 192 192 192
WIRE 448 192 448 80
WIRE 480 192 448 192
WIRE 480 208 480 192
WIRE -80 224 -128 224
WIRE -32 224 -80 224
WIRE 416 224 416 144
WIRE 448 224 416 224
WIRE 576 240 576 144
WIRE 576 240 512 240
WIRE -224 256 -224 112
WIRE 448 256 400 256
WIRE 112 272 112 160
WIRE 208 272 208 192
WIRE 480 272 208 272
WIRE -80 288 -80 224
WIRE 208 304 208 272
WIRE 400 304 400 256
WIRE 80 368 -80 368
WIRE 80 400 80 368
WIRE 112 400 112 352
WIRE 112 400 80 400
WIRE 208 400 208 384
WIRE 208 400 112 400
WIRE 400 400 400 384
WIRE 400 400 208 400
WIRE 80 432 80 400
FLAG 80 432 0
FLAG 176 -64 0
FLAG 576 240 Vout
FLAG 288 144 vo1
SYMBOL opamp2 192 80 R0
SYMATTR InstName U1
SYMATTR Value LM324
SYMBOL res 256 16 R90
WINDOW 0 0 56 VBottom 2
WINDOW 3 32 56 VTop 2
SYMATTR InstName R1
SYMATTR Value 2.2k
SYMBOL res 432 128 R90
WINDOW 0 0 56 VBottom 2
WINDOW 3 32 56 VTop 2
SYMATTR InstName R2
SYMATTR Value 2.2k
SYMBOL res 560 128 R90
WINDOW 0 0 56 VBottom 2
WINDOW 3 32 56 VTop 2
SYMATTR InstName aR2
SYMATTR Value 47k
SYMBOL res 144 48 R180
WINDOW 0 36 76 Left 2
WINDOW 3 36 40 Left 2
SYMATTR InstName aR1
SYMATTR Value 47k
SYMBOL res -16 96 R180
WINDOW 0 36 76 Left 2
WINDOW 3 36 40 Left 2
SYMATTR InstName R5
SYMATTR Value 99000
SYMBOL res -112 96 R180
WINDOW 0 36 76 Left 2
WINDOW 3 36 40 Left 2
SYMATTR InstName R6
SYMATTR Value 3.3k
SYMBOL res -112 240 R180
WINDOW 0 36 76 Left 2
WINDOW 3 36 40 Left 2
SYMATTR InstName R7
SYMATTR Value 3.3k
SYMBOL res -16 240 R180
WINDOW 0 36 76 Left 2
WINDOW 3 36 40 Left 2
SYMATTR InstName R8
SYMATTR Value 3.3k
SYMBOL voltage 208 288 R0
WINDOW 123 0 0 Left 0
WINDOW 39 0 0 Left 0
SYMATTR InstName V1
SYMATTR Value -5
SYMBOL voltage 384 64 R180
WINDOW 0 24 96 Left 2
WINDOW 3 24 16 Left 2
WINDOW 123 0 0 Left 0
WINDOW 39 0 0 Left 0
SYMATTR InstName V2
SYMATTR Value 5
SYMBOL OpAmps\\opamp2 480 176 R0
SYMATTR InstName U2
SYMATTR Value LM324
SYMBOL voltage -80 272 R0
WINDOW 123 0 0 Left 0
WINDOW 39 0 0 Left 0
SYMATTR InstName V3
SYMATTR Value -0.001
SYMBOL voltage -80 -32 R180
WINDOW 0 24 96 Left 2
WINDOW 3 24 16 Left 2
WINDOW 123 0 0 Left 0
WINDOW 39 0 0 Left 0
SYMATTR InstName V4
SYMATTR Value 0.001
SYMBOL voltage 400 288 R0
WINDOW 123 0 0 Left 0
WINDOW 39 0 0 Left 0
SYMATTR InstName V5
SYMATTR Value 2m
SYMBOL voltage 112 256 R0
WINDOW 123 0 0 Left 0
WINDOW 39 0 0 Left 0
SYMATTR InstName V6
SYMATTR Value 0
TEXT -448 432 Left 2 !.inc LM324.lib
TEXT -448 464 Left 2 !.tran 0 0.005 0
TEXT -632 -64 Left 2 ;Errores de DC (tensiones de offset)
